@<TRIPOS>MOLECULE
LIG
   37    37     1     0     0
SMALL
bcc


@<TRIPOS>ATOM
      1 C1          47.1250    37.9920    39.6700 c3        50 LIG       0.010300
      2 C2          47.9030    39.1680    40.3590 c3        50 LIG      -0.064400
      3 C3          49.4340    39.4250    40.1750 c3        50 LIG      -0.047000
      4 C4          50.1700    38.2100    40.7950 c3        50 LIG      -0.088433
      5 C5          49.8700    39.5290    38.7100 c3        50 LIG      -0.088433
      6 C6          47.1080    38.1180    38.1350 c3        50 LIG      -0.087100
      7 C7          47.7570    36.6150    39.9940 c3        50 LIG      -0.087100
      8 C8          49.9120    40.6710    40.9440 c3        50 LIG      -0.088433
      9 C9          45.6860    38.0220    40.2660 ca        50 LIG      -0.101300
     10 C10         44.9080    36.8450    40.3120 ca        50 LIG      -0.095500
     11 C11         45.1210    39.1880    40.8150 ca        50 LIG      -0.095500
     12 C12         43.6190    36.8390    40.8560 ca        50 LIG      -0.184500
     13 C13         43.8320    39.1830    41.3590 ca        50 LIG      -0.184500
     14 C14         43.0910    38.0120    41.3740 ca        50 LIG       0.119100
     15 O1          41.8400    38.0540    41.9140 oh        50 LIG      -0.498100
     16 H1          47.7250    39.0730    41.4410 hc        50 LIG       0.040700
     17 H2          47.3980    40.1060    40.0800 hc        50 LIG       0.040700
     18 H3          49.9100    37.2810    40.2740 hc        50 LIG       0.034256
     19 H4          49.9080    38.0860    41.8520 hc        50 LIG       0.034256
     20 H5          51.2580    38.3270    40.7350 hc        50 LIG       0.034256
     21 H6          49.4910    38.6880    38.1210 hc        50 LIG       0.034256
     22 H7          50.9640    39.5210    38.6240 hc        50 LIG       0.034256
     23 H8          49.5320    40.4610    38.2490 hc        50 LIG       0.034256
     24 H9          46.4350    37.3800    37.6820 hc        50 LIG       0.037200
     25 H10         48.0960    37.9340    37.7010 hc        50 LIG       0.037200
     26 H11         46.7820    39.1120    37.8100 hc        50 LIG       0.037200
     27 H12         48.6670    36.4300    39.4190 hc        50 LIG       0.037200
     28 H13         48.0230    36.5190    41.0520 hc        50 LIG       0.037200
     29 H14         47.0650    35.7990    39.7510 hc        50 LIG       0.037200
     30 H15         49.5480    40.6650    41.9770 hc        50 LIG       0.034256
     31 H16         51.0070    40.7120    40.9820 hc        50 LIG       0.034256
     32 H17         49.5870    41.6030    40.4770 hc        50 LIG       0.034256
     33 H18         45.3010    35.9070    39.9300 ha        50 LIG       0.135000
     34 H19         45.6650    40.1270    40.8390 ha        50 LIG       0.135000
     35 H20         43.0550    35.9120    40.8690 ha        50 LIG       0.140000
     36 H21         43.4130    40.0960    41.7740 ha        50 LIG       0.140000
     37 H22         41.9220    38.2470    42.8630 ho        50 LIG       0.418000
@<TRIPOS>BOND
     1     1     2 1   
     2     1     6 1   
     3     1     7 1   
     4     1     9 1   
     5     2     3 1   
     6     2    16 1   
     7     2    17 1   
     8     3     4 1   
     9     3     5 1   
    10     3     8 1   
    11     4    18 1   
    12     4    19 1   
    13     4    20 1   
    14     5    21 1   
    15     5    22 1   
    16     5    23 1   
    17     6    24 1   
    18     6    25 1   
    19     6    26 1   
    20     7    27 1   
    21     7    28 1   
    22     7    29 1   
    23     8    30 1   
    24     8    31 1   
    25     8    32 1   
    26     9    10 ar  
    27     9    11 ar  
    28    10    12 ar  
    29    10    33 1   
    30    11    13 ar  
    31    11    34 1   
    32    12    14 ar  
    33    12    35 1   
    34    13    14 ar  
    35    13    36 1   
    36    14    15 1   
    37    15    37 1   
@<TRIPOS>SUBSTRUCTURE
     1 LIG         1 TEMP              0 ****  ****    0 ROOT
