@<TRIPOS>MOLECULE
LIG
   56    59     1     0     0
SMALL
bcc


@<TRIPOS>ATOM
      1 O1          36.2800    45.0210    42.5740 os        36 LIG      -0.414600
      2 C1          34.9830    45.3590    42.0530 c3        36 LIG       0.196400
      3 C2          36.2670    44.5920    43.9430 c3        36 LIG       0.069100
      4 C3          34.0680    44.1140    42.1010 c3        36 LIG       0.126100
      5 C4          35.4340    43.3170    44.0990 c3        36 LIG       0.077100
      6 C5          34.0370    43.5400    43.5230 c3        36 LIG       0.071100
      7 C6          35.2300    45.9810    40.6830 ca        36 LIG      -0.095300
      8 C7          34.8040    45.2830    39.5370 ca        36 LIG      -0.101000
      9 C8          35.0020    45.7800    38.2320 ca        36 LIG      -0.093300
     10 C9          35.6520    47.0170    38.0660 ca        36 LIG      -0.052300
     11 C10         35.8870    47.1990    40.4890 ca        36 LIG      -0.098000
     12 C11         36.0960    47.7070    39.2030 ca        36 LIG      -0.139000
     13 C12         34.5150    44.9490    37.0590 c3        36 LIG       0.038200
     14 C13         35.0590    43.5450    37.0390 cc        36 LIG      -0.103400
     15 C14         35.4100    41.2910    36.5590 cd        36 LIG      -0.144000
     16 C15         34.6280    42.4560    36.3090 cd        36 LIG      -0.165000
     17 C16         36.4250    41.5150    37.4700 cc        36 LIG      -0.075100
     18 S1          36.4240    43.1480    37.9960 ss        36 LIG       0.052200
     19 C17         37.4400    40.5730    37.9620 ca        36 LIG      -0.013000
     20 C18         37.1480    39.1990    38.0200 ca        36 LIG      -0.100000
     21 C19         38.0960    38.2880    38.4940 ca        36 LIG      -0.161500
     22 C20         39.3370    38.7480    38.9160 ca        36 LIG       0.122900
     23 C21         38.7000    41.0120    38.4000 ca        36 LIG      -0.100000
     24 C22         39.6480    40.1010    38.8740 ca        36 LIG      -0.161500
     25 O2          35.3090    42.9570    45.4800 oh        36 LIG      -0.589800
     26 C23         37.7200    44.3760    44.3950 c3        36 LIG       0.137400
     27 O3          38.4820    45.5800    44.2870 oh        36 LIG      -0.594800
     28 O4          32.7140    44.4210    41.7350 oh        36 LIG      -0.597800
     29 O5          33.3000    42.3010    43.5300 oh        36 LIG      -0.603800
     30 C24         35.9280    47.6040    36.7090 c3        36 LIG      -0.061800
     31 F1          40.2450    37.8750    39.3710 f         36 LIG      -0.140900
     32 H1          34.5400    46.1510    42.6740 h1        36 LIG       0.061700
     33 H2          35.8500    45.3990    44.5580 h1        36 LIG       0.055700
     34 H3          34.4270    43.3420    41.4090 h1        36 LIG       0.069700
     35 H4          35.9020    42.4710    43.5800 h1        36 LIG       0.104700
     36 H5          33.4670    44.2100    44.1800 h1        36 LIG       0.049700
     37 H6          34.2980    44.3260    39.6690 ha        36 LIG       0.149000
     38 H7          36.2630    47.7790    41.3280 ha        36 LIG       0.145000
     39 H8          36.6190    48.6560    39.0970 ha        36 LIG       0.133000
     40 H9          34.7480    45.4840    36.1300 hc        36 LIG       0.061200
     41 H10         33.4190    44.8850    37.0810 hc        36 LIG       0.061200
     42 H11         35.2260    40.3300    36.0950 ha        36 LIG       0.153000
     43 H12         33.7810    42.4870    35.6340 ha        36 LIG       0.152000
     44 H13         36.1840    38.8270    37.6840 ha        36 LIG       0.141000
     45 H14         37.8740    37.2270    38.5350 ha        36 LIG       0.149000
     46 H15         38.9530    42.0700    38.3850 ha        36 LIG       0.141000
     47 H16         40.6220    40.4400    39.2120 ha        36 LIG       0.149000
     48 H17         35.1080    43.7830    45.9610 ho        36 LIG       0.405000
     49 H18         37.7410    44.0670    45.4450 h1        36 LIG       0.064200
     50 H19         38.2090    43.6080    43.7880 h1        36 LIG       0.064200
     51 H20         39.0430    45.4870    43.4980 ho        36 LIG       0.413000
     52 H21         32.5470    43.9670    40.8860 ho        36 LIG       0.424000
     53 H22         33.8860    41.6070    43.8880 ho        36 LIG       0.423000
     54 H23         36.2340    48.6530    36.7850 hc        36 LIG       0.048367
     55 H24         35.0320    47.5830    36.0820 hc        36 LIG       0.048367
     56 H25         36.7360    47.0550    36.2160 hc        36 LIG       0.048367
@<TRIPOS>BOND
     1     1     2 1   
     2     1     3 1   
     3     2     4 1   
     4     2     7 1   
     5     2    32 1   
     6     3     5 1   
     7     3    26 1   
     8     3    33 1   
     9     4     6 1   
    10     4    28 1   
    11     4    34 1   
    12     5     6 1   
    13     5    25 1   
    14     5    35 1   
    15     6    29 1   
    16     6    36 1   
    17     7     8 ar  
    18     7    11 ar  
    19     8     9 ar  
    20     8    37 1   
    21     9    10 ar  
    22     9    13 1   
    23    10    12 ar  
    24    10    30 1   
    25    11    12 ar  
    26    11    38 1   
    27    12    39 1   
    28    13    14 1   
    29    13    40 1   
    30    13    41 1   
    31    14    16 2   
    32    14    18 1   
    33    15    16 1   
    34    15    17 2   
    35    15    42 1   
    36    16    43 1   
    37    17    18 1   
    38    17    19 1   
    39    19    20 ar  
    40    19    23 ar  
    41    20    21 ar  
    42    20    44 1   
    43    21    22 ar  
    44    21    45 1   
    45    22    24 ar  
    46    22    31 1   
    47    23    24 ar  
    48    23    46 1   
    49    24    47 1   
    50    25    48 1   
    51    26    27 1   
    52    26    49 1   
    53    26    50 1   
    54    27    51 1   
    55    28    52 1   
    56    29    53 1   
    57    30    54 1   
    58    30    55 1   
    59    30    56 1   
@<TRIPOS>SUBSTRUCTURE
     1 LIG         1 TEMP              0 ****  ****    0 ROOT
