@<TRIPOS>MOLECULE
LIG
  144   147     1     0     0
SMALL
bcc


@<TRIPOS>ATOM
      1 C1          40.9260    31.9020    42.4640 c3        50 LIG      -0.076400
      2 C2          41.3650    30.9860    41.2970 c3        50 LIG       0.074700
      3 C3          39.4220    31.8400    42.7180 c3        50 LIG      -0.078400
      4 N1          40.4290    29.8480    41.1640 n         50 LIG      -0.449800
      5 C4          38.9560    30.4140    43.0280 c3        50 LIG      -0.094400
      6 C5          39.8590    29.3480    42.4060 c3        50 LIG       0.089000
      7 C6          42.8080    30.4710    41.5010 c         50 LIG       0.611100
      8 O1          43.2130    29.3590    41.1940 o         50 LIG      -0.535000
      9 O2          43.5870    31.4410    42.0620 os        50 LIG      -0.441900
     10 C7          44.9500    31.1060    42.4160 c3        50 LIG       0.163100
     11 C8          45.0150    30.4580    43.8370 c3        50 LIG      -0.090700
     12 C9          44.2200    31.2850    44.8580 c3        50 LIG      -0.090100
     13 C10         46.4780    30.2480    44.3040 c3        50 LIG      -0.073400
     14 C11         45.7360    32.4260    42.3790 c3        50 LIG      -0.186400
     15 O3          48.9810    28.9110    48.9180 oh        50 LIG      -0.600800
     16 O4          49.0530    31.0840    46.0310 os        50 LIG      -0.426600
     17 C12         46.6410    29.4210    45.5990 c3        50 LIG      -0.064700
     18 C13         46.1670    30.1740    46.8530 c3        50 LIG      -0.075400
     19 C14         46.8450    29.6490    48.1090 c3        50 LIG      -0.071400
     20 C15         48.3590    29.8860    48.0760 c3        50 LIG       0.115100
     21 C16         48.0950    28.9100    45.7530 c3        50 LIG      -0.071400
     22 C17         48.9660    29.7930    46.6560 c3        50 LIG       0.105100
     23 C18         49.9180    31.9770    46.7220 c3        50 LIG       0.109700
     24 C19         47.0380    32.2730    41.6240 c         50 LIG       0.572100
     25 O5          47.1060    32.5730    40.4300 o         50 LIG      -0.530100
     26 C20         40.0670    29.2510    39.9580 c         50 LIG       0.596100
     27 C21         40.6000    29.8600    38.6790 c         50 LIG       0.535100
     28 C22         39.5460    30.4590    37.6980 c3        50 LIG       0.269600
     29 O6          39.3210    28.2840    39.8540 o         50 LIG      -0.534100
     30 O7          41.8150    29.8020    38.4790 o         50 LIG      -0.471100
     31 O8          40.3620    30.8770    36.5920 os        50 LIG      -0.426600
     32 C23         39.7210    31.6540    35.5860 c3        50 LIG       0.147100
     33 C24         39.2260    32.9550    36.2000 c3        50 LIG      -0.116400
     34 C25         38.8040    31.6700    38.3380 c3        50 LIG      -0.114700
     35 C26         38.2160    32.6270    37.2830 c3        50 LIG      -0.080400
     36 C27         48.2550    31.7730    42.4060 c3        50 LIG      -0.118500
     37 C28         49.1470    32.9550    42.7600 c3        50 LIG      -0.094100
     38 C29         48.8640    30.5850    41.6920 c2        50 LIG      -0.196200
     39 C30         49.8670    30.4540    40.7930 c2        50 LIG      -0.101400
     40 C31         50.2260    29.0550    40.3310 c3        50 LIG      -0.087900
     41 C32         50.6960    31.5820    40.1930 c3        50 LIG       0.166300
     42 C33         50.1260    32.2130    38.8960 c3        50 LIG      -0.000900
     43 O9          52.0510    31.1380    40.0440 oh        50 LIG      -0.589800
     44 C34         50.0820    31.1980    37.7550 c         50 LIG       0.595100
     45 O10         51.0840    30.5560    37.4290 o         50 LIG      -0.546100
     46 C35         48.7550    31.0580    37.0120 c3        50 LIG      -0.162700
     47 O11         50.9550    33.2900    38.4280 os        50 LIG      -0.399600
     48 C36         51.0870    34.3380    39.3760 c3        50 LIG       0.109700
     49 C37         48.6350    29.6630    36.3980 c3        50 LIG      -0.096100
     50 C38         48.6540    32.1730    35.9570 c3        50 LIG      -0.063400
     51 C39         47.2520    32.3370    35.3360 c3        50 LIG      -0.040500
     52 C40         47.3130    33.3260    34.1670 c3        50 LIG      -0.087100
     53 C41         44.6840    30.9070    36.4510 ce        50 LIG      -0.121000
     54 C42         45.1720    32.2110    36.8330 ce        50 LIG      -0.144000
     55 C43         46.2650    32.8370    36.3670 c2        50 LIG      -0.146200
     56 C44         42.9030    34.7600    35.1380 c3        50 LIG       0.114700
     57 C45         40.7150    31.8480    34.4280 c3        50 LIG      -0.070400
     58 C46         42.0130    32.5760    34.8240 c3        50 LIG       0.173300
     59 O12         41.7500    33.9880    34.8200 os        50 LIG      -0.429600
     60 C47         43.1220    32.2490    33.8300 c2        50 LIG      -0.144400
     61 C48         44.0850    31.3310    34.0610 cf        50 LIG      -0.124000
     62 C49         43.0680    32.9640    32.5040 c3        50 LIG      -0.052900
     63 C50         44.2270    30.5200    35.2500 cf        50 LIG      -0.137000
     64 O13         38.6040    29.5280    37.2080 oh        50 LIG      -0.595800
     65 C51         37.6480    31.2780    39.2690 c3        50 LIG      -0.091100
     66 H1          41.4350    31.6220    43.3920 hc        50 LIG       0.059200
     67 H2          41.2270    32.9340    42.2480 hc        50 LIG       0.059200
     68 H3          41.3580    31.5660    40.3700 h1        50 LIG       0.092700
     69 H4          39.1460    32.5070    43.5410 hc        50 LIG       0.047700
     70 H5          38.8970    32.2100    41.8290 hc        50 LIG       0.047700
     71 H6          37.9310    30.2940    42.6590 hc        50 LIG       0.058700
     72 H7          38.9090    30.2560    44.1120 hc        50 LIG       0.058700
     73 H8          39.2950    28.4230    42.2510 h1        50 LIG       0.062200
     74 H9          40.6880    29.1090    43.0860 h1        50 LIG       0.062200
     75 H10         45.3630    30.4190    41.6670 h1        50 LIG       0.084700
     76 H11         44.5160    29.4860    43.7790 hc        50 LIG       0.070700
     77 H12         43.2470    31.5730    44.4510 hc        50 LIG       0.036367
     78 H13         44.7530    32.1920    45.1560 hc        50 LIG       0.036367
     79 H14         44.0200    30.7130    45.7650 hc        50 LIG       0.036367
     80 H15         46.9760    31.2190    44.4140 hc        50 LIG       0.051700
     81 H16         47.0310    29.7220    43.5150 hc        50 LIG       0.051700
     82 H17         45.1630    33.2150    41.8780 hc        50 LIG       0.084700
     83 H18         45.9660    32.8140    43.3770 hc        50 LIG       0.084700
     84 H19         49.9440    29.0200    48.8290 ho        50 LIG       0.396000
     85 H20         46.0140    28.5260    45.4840 hc        50 LIG       0.061700
     86 H21         45.0810    30.0640    46.9580 hc        50 LIG       0.045200
     87 H22         46.3740    31.2470    46.7640 hc        50 LIG       0.045200
     88 H23         46.6220    28.5800    48.2330 hc        50 LIG       0.055700
     89 H24         46.4260    30.1410    48.9960 hc        50 LIG       0.055700
     90 H25         48.5720    30.8650    48.5130 h1        50 LIG       0.046700
     91 H26         48.0660    27.9010    46.1820 hc        50 LIG       0.061200
     92 H27         48.5670    28.8090    44.7680 hc        50 LIG       0.061200
     93 H28         49.9680    29.3460    46.6940 h1        50 LIG       0.052700
     94 H29         49.9400    32.9220    46.1710 h1        50 LIG       0.033033
     95 H30         49.5550    32.1780    47.7320 h1        50 LIG       0.033033
     96 H31         50.9350    31.5760    46.7600 h1        50 LIG       0.033033
     97 H32         38.8690    31.0860    35.1890 h1        50 LIG       0.035700
     98 H33         40.0500    33.5070    36.6650 hc        50 LIG       0.068200
     99 H34         38.7730    33.5970    35.4380 hc        50 LIG       0.068200
    100 H35         39.5330    32.2520    38.9190 hc        50 LIG       0.088700
    101 H36         37.3260    32.1790    36.8190 hc        50 LIG       0.047700
    102 H37         37.8850    33.5560    37.7640 hc        50 LIG       0.047700
    103 H38         47.9010    31.3750    43.3640 hc        50 LIG       0.063700
    104 H39         48.6620    33.5710    43.5270 hc        50 LIG       0.046700
    105 H40         49.3190    33.6160    41.9070 hc        50 LIG       0.046700
    106 H41         50.1090    32.6270    43.1670 hc        50 LIG       0.046700
    107 H42         48.3690    29.6550    41.9920 ha        50 LIG       0.124000
    108 H43         51.2710    28.8250    40.5560 hc        50 LIG       0.059700
    109 H44         49.6220    28.2850    40.8240 hc        50 LIG       0.059700
    110 H45         50.0670    28.9410    39.2580 hc        50 LIG       0.059700
    111 H46         50.7930    32.3780    40.9290 h1        50 LIG       0.083700
    112 H47         49.1130    32.5830    39.0670 h1        50 LIG       0.090700
    113 H48         52.0530    30.1630    40.1800 ho        50 LIG       0.422000
    114 H49         47.9610    31.1540    37.7620 hc        50 LIG       0.091700
    115 H50         51.5420    33.9800    40.3030 h1        50 LIG       0.040367
    116 H51         51.7380    35.1070    38.9500 h1        50 LIG       0.040367
    117 H52         50.1110    34.7880    39.5840 h1        50 LIG       0.040367
    118 H53         48.8510    28.8890    37.1420 hc        50 LIG       0.049033
    119 H54         47.6260    29.4790    36.0160 hc        50 LIG       0.049033
    120 H55         49.3410    29.5280    35.5710 hc        50 LIG       0.049033
    121 H56         48.9620    33.1290    36.3990 hc        50 LIG       0.052700
    122 H57         49.3830    31.9710    35.1580 hc        50 LIG       0.052700
    123 H58         46.9410    31.3730    34.9270 hc        50 LIG       0.059700
    124 H59         47.9780    32.9510    33.3810 hc        50 LIG       0.036367
    125 H60         46.3230    33.4740    33.7210 hc        50 LIG       0.036367
    126 H61         47.6880    34.3040    34.4870 hc        50 LIG       0.036367
    127 H62         44.6540    30.1820    37.2640 ha        50 LIG       0.129000
    128 H63         44.6050    32.6860    37.6310 ha        50 LIG       0.121000
    129 H64         46.4960    33.8130    36.7960 ha        50 LIG       0.120000
    130 H65         42.6110    35.8140    35.1540 h1        50 LIG       0.033700
    131 H66         43.6850    34.6310    34.3850 h1        50 LIG       0.033700
    132 H67         43.2800    34.4950    36.1300 h1        50 LIG       0.033700
    133 H68         40.2070    32.3880    33.6180 hc        50 LIG       0.071700
    134 H69         40.9660    30.8460    34.0540 hc        50 LIG       0.071700
    135 H70         42.2910    32.2780    35.8400 h1        50 LIG       0.067700
    136 H71         44.8100    31.1030    33.2820 ha        50 LIG       0.126000
    137 H72         43.8680    32.6450    31.8290 hc        50 LIG       0.043700
    138 H73         42.1150    32.7680    32.0000 hc        50 LIG       0.043700
    139 H74         43.1770    34.0460    32.6410 hc        50 LIG       0.043700
    140 H75         43.9140    29.4840    35.1320 ha        50 LIG       0.144000
    141 H76         38.2310    29.9260    36.4000 ho        50 LIG       0.418000
    142 H77         37.1840    32.1720    39.7040 hc        50 LIG       0.042700
    143 H78         36.8640    30.7330    38.7290 hc        50 LIG       0.042700
    144 H79         37.9700    30.6540    40.1010 hc        50 LIG       0.042700
@<TRIPOS>BOND
     1     1     2 1   
     2     1     3 1   
     3     1    66 1   
     4     1    67 1   
     5     2     4 1   
     6     2     7 1   
     7     2    68 1   
     8     3     5 1   
     9     3    69 1   
    10     3    70 1   
    11     4     6 1   
    12     4    26 1   
    13     5     6 1   
    14     5    71 1   
    15     5    72 1   
    16     6    73 1   
    17     6    74 1   
    18     7     8 2   
    19     7     9 1   
    20     9    10 1   
    21    10    11 1   
    22    10    14 1   
    23    10    75 1   
    24    11    12 1   
    25    11    13 1   
    26    11    76 1   
    27    12    77 1   
    28    12    78 1   
    29    12    79 1   
    30    13    17 1   
    31    13    80 1   
    32    13    81 1   
    33    14    24 1   
    34    14    82 1   
    35    14    83 1   
    36    15    20 1   
    37    15    84 1   
    38    16    22 1   
    39    16    23 1   
    40    17    18 1   
    41    17    21 1   
    42    17    85 1   
    43    18    19 1   
    44    18    86 1   
    45    18    87 1   
    46    19    20 1   
    47    19    88 1   
    48    19    89 1   
    49    20    22 1   
    50    20    90 1   
    51    21    22 1   
    52    21    91 1   
    53    21    92 1   
    54    22    93 1   
    55    23    94 1   
    56    23    95 1   
    57    23    96 1   
    58    24    25 2   
    59    24    36 1   
    60    26    27 1   
    61    26    29 2   
    62    27    28 1   
    63    27    30 2   
    64    28    31 1   
    65    28    34 1   
    66    28    64 1   
    67    31    32 1   
    68    32    33 1   
    69    32    57 1   
    70    32    97 1   
    71    33    35 1   
    72    33    98 1   
    73    33    99 1   
    74    34    35 1   
    75    34    65 1   
    76    34   100 1   
    77    35   101 1   
    78    35   102 1   
    79    36    37 1   
    80    36    38 1   
    81    36   103 1   
    82    37   104 1   
    83    37   105 1   
    84    37   106 1   
    85    38    39 2   
    86    38   107 1   
    87    39    40 1   
    88    39    41 1   
    89    40   108 1   
    90    40   109 1   
    91    40   110 1   
    92    41    42 1   
    93    41    43 1   
    94    41   111 1   
    95    42    44 1   
    96    42    47 1   
    97    42   112 1   
    98    43   113 1   
    99    44    45 2   
   100    44    46 1   
   101    46    49 1   
   102    46    50 1   
   103    46   114 1   
   104    47    48 1   
   105    48   115 1   
   106    48   116 1   
   107    48   117 1   
   108    49   118 1   
   109    49   119 1   
   110    49   120 1   
   111    50    51 1   
   112    50   121 1   
   113    50   122 1   
   114    51    52 1   
   115    51    55 1   
   116    51   123 1   
   117    52   124 1   
   118    52   125 1   
   119    52   126 1   
   120    53    54 1   
   121    53    63 2   
   122    53   127 1   
   123    54    55 2   
   124    54   128 1   
   125    55   129 1   
   126    56    59 1   
   127    56   130 1   
   128    56   131 1   
   129    56   132 1   
   130    57    58 1   
   131    57   133 1   
   132    57   134 1   
   133    58    59 1   
   134    58    60 1   
   135    58   135 1   
   136    60    61 2   
   137    60    62 1   
   138    61    63 1   
   139    61   136 1   
   140    62   137 1   
   141    62   138 1   
   142    62   139 1   
   143    63   140 1   
   144    64   141 1   
   145    65   142 1   
   146    65   143 1   
   147    65   144 1   
@<TRIPOS>SUBSTRUCTURE
     1 LIG         1 TEMP              0 ****  ****    0 ROOT
