@<TRIPOS>MOLECULE
LIG
   60    62     1     0     0
SMALL
bcc


@<TRIPOS>ATOM
      1 O1          44.5930    36.5430    39.9260 o         36 LIG      -0.827300
      2 O2          41.9730    37.7360    42.1240 o         36 LIG      -0.630100
      3 O3          42.8590    35.7000    38.7000 o         36 LIG      -0.827300
      4 N1          41.3220    37.9160    39.9010 n         36 LIG      -0.429800
      5 N2          38.5340    44.6530    37.5230 nc        36 LIG      -0.450800
      6 N3          38.7340    42.9500    38.9990 nd        36 LIG      -0.376000
      7 N4          39.6390    44.7070    38.2800 na        36 LIG       0.099900
      8 N5          39.7880    43.7320    39.1790 nc        36 LIG      -0.164800
      9 C1          42.7490    38.0050    39.4250 c3        36 LIG      -0.017300
     10 C2          43.5810    39.1930    39.9900 c3        36 LIG      -0.056700
     11 C3          40.3640    37.4690    38.8810 c3        36 LIG       0.102300
     12 C4          41.0940    37.6960    41.2630 c         36 LIG       0.661100
     13 C5          44.9590    39.2970    39.3300 c3        36 LIG      -0.085100
     14 C6          42.9070    40.5640    39.9770 c3        36 LIG      -0.085100
     15 C7          39.6500    37.4350    41.6850 c3        36 LIG      -0.161400
     16 C8          43.4860    36.6160    39.3060 c         36 LIG       0.901600
     17 C9          39.3540    38.5330    38.5100 ca        36 LIG      -0.066300
     18 C10         39.4810    37.3990    43.2080 c3        36 LIG      -0.069400
     19 C11         39.8990    38.7010    43.8940 c3        36 LIG      -0.089400
     20 C12         39.7440    39.6760    37.8000 ca        36 LIG      -0.128500
     21 C13         38.0120    38.4000    38.8870 ca        36 LIG      -0.128500
     22 C14         37.4650    40.5340    37.8470 cp        36 LIG      -0.078000
     23 C15         38.8100    40.6630    37.4700 ca        36 LIG      -0.110500
     24 C16         37.0790    39.3880    38.5570 ca        36 LIG      -0.110500
     25 C17         39.6530    38.7020    45.3950 c3        36 LIG      -0.092100
     26 C18         36.4750    41.5560    37.4690 cp        36 LIG       0.014000
     27 C19         36.7340    42.9460    37.4970 ca        36 LIG      -0.107500
     28 C20         35.2150    41.1170    37.0130 ca        36 LIG      -0.127000
     29 C21         35.7390    43.8420    37.0530 ca        36 LIG      -0.099000
     30 C22         34.2370    42.0180    36.5870 ca        36 LIG      -0.122000
     31 C23         37.9930    43.5040    37.9790 cd        36 LIG       0.533500
     32 C24         34.5010    43.3820    36.6040 ca        36 LIG      -0.146000
     33 H1          40.3250    45.4490    38.1830 hn        36 LIG       0.360700
     34 H2          42.6620    38.2650    38.3580 h1        36 LIG       0.030700
     35 H3          43.7640    38.9640    41.0500 hc        36 LIG       0.095700
     36 H4          39.8000    36.5870    39.1920 h1        36 LIG       0.086700
     37 H5          40.9270    37.1430    37.9980 h1        36 LIG       0.086700
     38 H6          44.8790    39.5750    38.2740 hc        36 LIG       0.024033
     39 H7          45.5010    38.3490    39.4010 hc        36 LIG       0.024033
     40 H8          45.5680    40.0600    39.8280 hc        36 LIG       0.024033
     41 H9          43.4500    41.2540    40.6340 hc        36 LIG       0.024033
     42 H10         41.8760    40.5160    40.3420 hc        36 LIG       0.024033
     43 H11         42.9150    41.0130    38.9790 hc        36 LIG       0.024033
     44 H12         39.0180    38.2260    41.2720 hc        36 LIG       0.060200
     45 H13         39.3420    36.4660    41.2780 hc        36 LIG       0.060200
     46 H14         38.4290    37.2060    43.4520 hc        36 LIG       0.050700
     47 H15         40.0540    36.5610    43.6240 hc        36 LIG       0.050700
     48 H16         40.9580    38.9040    43.6980 hc        36 LIG       0.039700
     49 H17         39.3300    39.5250    43.4480 hc        36 LIG       0.039700
     50 H18         40.7770    39.7950    37.4840 ha        36 LIG       0.142000
     51 H19         37.6840    37.5180    39.4340 ha        36 LIG       0.142000
     52 H20         39.1400    41.5310    36.9040 ha        36 LIG       0.127000
     53 H21         36.0430    39.2550    38.8620 ha        36 LIG       0.127000
     54 H22         38.6100    38.4610    45.6230 hc        36 LIG       0.027700
     55 H23         40.2950    37.9800    45.9080 hc        36 LIG       0.027700
     56 H24         39.8710    39.6910    45.8100 hc        36 LIG       0.027700
     57 H25         34.9990    40.0490    36.9740 ha        36 LIG       0.144000
     58 H26         35.9290    44.9140    37.0650 ha        36 LIG       0.144000
     59 H27         33.2780    41.6490    36.2370 ha        36 LIG       0.128000
     60 H28         33.7470    44.0880    36.2690 ha        36 LIG       0.128000
@<TRIPOS>BOND
     1     1    16 1   
     2     2    12 2   
     3     3    16 1   
     4     4     9 1   
     5     4    11 1   
     6     4    12 1   
     7     5     7 1   
     8     5    31 2   
     9     6     8 2   
    10     6    31 1   
    11     7     8 1   
    12     7    33 1   
    13     9    10 1   
    14     9    16 1   
    15     9    34 1   
    16    10    13 1   
    17    10    14 1   
    18    10    35 1   
    19    11    17 1   
    20    11    36 1   
    21    11    37 1   
    22    12    15 1   
    23    13    38 1   
    24    13    39 1   
    25    13    40 1   
    26    14    41 1   
    27    14    42 1   
    28    14    43 1   
    29    15    18 1   
    30    15    44 1   
    31    15    45 1   
    32    17    20 ar  
    33    17    21 ar  
    34    18    19 1   
    35    18    46 1   
    36    18    47 1   
    37    19    25 1   
    38    19    48 1   
    39    19    49 1   
    40    20    23 ar  
    41    20    50 1   
    42    21    24 ar  
    43    21    51 1   
    44    22    23 ar  
    45    22    24 ar  
    46    22    26 1   
    47    23    52 1   
    48    24    53 1   
    49    25    54 1   
    50    25    55 1   
    51    25    56 1   
    52    26    27 ar  
    53    26    28 ar  
    54    27    29 ar  
    55    27    31 1   
    56    28    30 ar  
    57    28    57 1   
    58    29    32 ar  
    59    29    58 1   
    60    30    32 ar  
    61    30    59 1   
    62    32    60 1   
@<TRIPOS>SUBSTRUCTURE
     1 LIG         1 TEMP              0 ****  ****    0 ROOT
