@<TRIPOS>MOLECULE
LIG
   61    62     1     0     0
SMALL
bcc


@<TRIPOS>ATOM
      1 O1          43.0350    37.1780    37.8980 o         36 LIG      -0.854800
      2 C1          42.1000    37.0810    38.7410 c         36 LIG       0.910600
      3 O2          42.0800    36.5020    39.8650 o         36 LIG      -0.854800
      4 C2          40.7880    37.7480    38.3340 c3        36 LIG      -0.197400
      5 C3          39.8980    37.8650    39.5690 c3        36 LIG      -0.071400
      6 C4          38.6690    38.7510    39.3410 c3        36 LIG      -0.052200
      7 C5          39.0070    40.1490    38.8970 c2        36 LIG      -0.124200
      8 C6          38.2780    40.9640    38.1160 c2        36 LIG      -0.225200
      9 C7          36.9210    40.7080    37.5180 c3        36 LIG      -0.040200
     10 C8          36.3470    41.8450    36.6450 c3        36 LIG      -0.091700
     11 C9          36.0780    43.1470    37.4560 c3        36 LIG      -0.100700
     12 C10         34.6520    43.5720    37.0700 c3        36 LIG       0.143100
     13 C11         35.0230    41.5450    35.9120 c3        36 LIG       0.139100
     14 C12         33.9570    42.2690    36.7150 c3        36 LIG      -0.147400
     15 O3          34.7440    40.1700    35.7600 oh        36 LIG      -0.596800
     16 O4          33.9790    44.2290    38.1300 oh        36 LIG      -0.598800
     17 C13         37.1390    44.2250    37.1750 c3        36 LIG      -0.069400
     18 C14         37.0530    45.4090    38.1470 c3        36 LIG      -0.112400
     19 C15         37.1490    45.0200    39.6310 c3        36 LIG       0.129100
     20 C16         37.0430    46.2280    40.5710 c3        36 LIG      -0.103400
     21 O5          38.3820    44.3480    39.8820 oh        36 LIG      -0.598800
     22 C17         37.2390    45.8720    42.0500 c3        36 LIG      -0.028100
     23 C18         36.1680    44.9610    42.6000 ca        36 LIG      -0.109300
     24 C19         33.9010    44.0930    42.5380 ca        36 LIG      -0.130000
     25 C20         34.8840    44.9490    42.0380 ca        36 LIG      -0.145500
     26 C21         34.1920    43.2420    43.6020 ca        36 LIG      -0.104000
     27 C22         35.4660    43.2460    44.1690 ca        36 LIG      -0.130000
     28 C23         36.4490    44.1020    43.6710 ca        36 LIG      -0.145500
     29 H1          40.3050    37.1390    37.5610 hc        36 LIG       0.023200
     30 H2          40.9920    38.7320    37.8980 hc        36 LIG       0.023200
     31 H3          40.4840    38.2430    40.4160 hc        36 LIG       0.048700
     32 H4          39.5450    36.8680    39.8610 hc        36 LIG       0.048700
     33 H5          38.0810    38.7620    40.2640 hc        36 LIG       0.028200
     34 H6          38.0250    38.2940    38.5790 hc        36 LIG       0.028200
     35 H7          39.9660    40.5230    39.2520 ha        36 LIG       0.144000
     36 H8          38.6910    41.9510    37.9060 ha        36 LIG       0.116000
     37 H9          36.9260    39.7860    36.9270 hc        36 LIG       0.040700
     38 H10         36.2260    40.5090    38.3440 hc        36 LIG       0.040700
     39 H11         37.1020    42.0400    35.8720 hc        36 LIG       0.062700
     40 H12         36.1060    42.9440    38.5320 hc        36 LIG       0.087700
     41 H13         34.6600    44.2430    36.2030 h1        36 LIG       0.071700
     42 H14         35.0720    41.9830    34.9070 h1        36 LIG       0.069700
     43 H15         33.6550    41.7030    37.6050 hc        36 LIG       0.053700
     44 H16         33.0430    42.4340    36.1350 hc        36 LIG       0.053700
     45 H17         34.2840    39.8670    36.5610 ho        36 LIG       0.402000
     46 H18         33.2490    43.6520    38.4210 ho        36 LIG       0.407000
     47 H19         38.1300    43.7630    37.2540 hc        36 LIG       0.045200
     48 H20         37.0330    44.5800    36.1440 hc        36 LIG       0.045200
     49 H21         36.0890    45.9100    37.9890 hc        36 LIG       0.045700
     50 H22         37.8380    46.1390    37.9210 hc        36 LIG       0.045700
     51 H23         36.3400    44.3120    39.8440 h1        36 LIG       0.100700
     52 H24         36.0760    46.7260    40.4290 hc        36 LIG       0.040700
     53 H25         37.8250    46.9540    40.3160 hc        36 LIG       0.040700
     54 H26         39.0380    45.0240    40.1240 ho        36 LIG       0.385000
     55 H27         37.2350    46.7970    42.6410 hc        36 LIG       0.043700
     56 H28         38.2300    45.4290    42.2090 hc        36 LIG       0.043700
     57 H29         32.9090    44.0880    42.0950 ha        36 LIG       0.151000
     58 H30         34.6440    45.6060    41.2060 ha        36 LIG       0.116000
     59 H31         33.4280    42.5730    43.9890 ha        36 LIG       0.192000
     60 H32         35.6970    42.5800    44.9950 ha        36 LIG       0.151000
     61 H33         37.4430    44.0900    44.1150 ha        36 LIG       0.116000
@<TRIPOS>BOND
     1     1     2 1   
     2     2     3 1   
     3     2     4 1   
     4     4     5 1   
     5     4    29 1   
     6     4    30 1   
     7     5     6 1   
     8     5    31 1   
     9     5    32 1   
    10     6     7 1   
    11     6    33 1   
    12     6    34 1   
    13     7     8 2   
    14     7    35 1   
    15     8     9 1   
    16     8    36 1   
    17     9    10 1   
    18     9    37 1   
    19     9    38 1   
    20    10    11 1   
    21    10    13 1   
    22    10    39 1   
    23    11    12 1   
    24    11    17 1   
    25    11    40 1   
    26    12    14 1   
    27    12    16 1   
    28    12    41 1   
    29    13    14 1   
    30    13    15 1   
    31    13    42 1   
    32    14    43 1   
    33    14    44 1   
    34    15    45 1   
    35    16    46 1   
    36    17    18 1   
    37    17    47 1   
    38    17    48 1   
    39    18    19 1   
    40    18    49 1   
    41    18    50 1   
    42    19    20 1   
    43    19    21 1   
    44    19    51 1   
    45    20    22 1   
    46    20    52 1   
    47    20    53 1   
    48    21    54 1   
    49    22    23 1   
    50    22    55 1   
    51    22    56 1   
    52    23    25 ar  
    53    23    28 ar  
    54    24    25 ar  
    55    24    26 ar  
    56    24    57 1   
    57    25    58 1   
    58    26    27 ar  
    59    26    59 1   
    60    27    28 ar  
    61    27    60 1   
    62    28    61 1   
@<TRIPOS>SUBSTRUCTURE
     1 LIG         1 TEMP              0 ****  ****    0 ROOT
