@<TRIPOS>MOLECULE
LIG
   51    54     1     0     0
SMALL
bcc


@<TRIPOS>ATOM
      1 F1          42.5620    46.2730    34.7970 f         36 LIG      -0.143900
      2 F2          45.4850    38.0900    37.7980 f         36 LIG      -0.140900
      3 O1          41.0040    41.8990    39.6540 o         36 LIG      -0.570500
      4 O2          40.3500    36.8260    41.1800 oh        36 LIG      -0.592800
      5 O3          33.5970    44.4950    36.8970 oh        36 LIG      -0.492100
      6 N1          39.8210    42.4360    37.6870 n         36 LIG      -0.403000
      7 C1          38.8770    40.8860    38.7000 cy        36 LIG      -0.155700
      8 C2          38.6210    41.6570    37.3610 cy        36 LIG       0.160000
      9 C3          39.1120    39.3750    38.6970 c3        36 LIG      -0.067400
     10 C4          40.1100    41.7940    38.8460 c         36 LIG       0.716500
     11 C5          37.2360    42.4350    37.2310 ca        36 LIG      -0.146300
     12 C6          39.5480    38.8100    40.0540 c3        36 LIG      -0.118400
     13 C7          40.5080    43.4040    36.9560 ca        36 LIG       0.074600
     14 C8          40.2820    37.4680    39.9110 c3        36 LIG       0.193400
     15 C9          35.9910    41.7740    37.1990 ca        36 LIG      -0.073000
     16 C10         37.1960    43.8430    37.1410 ca        36 LIG      -0.073000
     17 C11         40.0580    43.8030    35.6900 ca        36 LIG      -0.151500
     18 C12         41.6670    43.9960    37.4780 ca        36 LIG      -0.151500
     19 C13         41.6760    37.6290    39.3370 ca        36 LIG      -0.100300
     20 C14         34.7840    42.4700    37.0860 ca        36 LIG      -0.187000
     21 C15         35.9930    44.5500    37.0290 ca        36 LIG      -0.187000
     22 C16         34.7940    43.8530    37.0010 ca        36 LIG       0.139100
     23 C17         40.7510    44.7730    34.9610 ca        36 LIG      -0.134000
     24 C18         42.3610    44.9650    36.7480 ca        36 LIG      -0.134000
     25 C19         42.0260    37.0450    38.1070 ca        36 LIG      -0.087000
     26 C20         42.6410    38.3760    40.0320 ca        36 LIG      -0.087000
     27 C21         41.8970    45.3440    35.4960 ca        36 LIG       0.088900
     28 C22         43.3120    37.2000    37.5880 ca        36 LIG      -0.168000
     29 C23         43.9270    38.5310    39.5100 ca        36 LIG      -0.168000
     30 C24         44.2500    37.9410    38.2950 ca        36 LIG       0.129900
     31 H1          39.4610    36.8380    41.5750 ho        36 LIG       0.402000
     32 H2          33.0210    44.1980    37.6180 ho        36 LIG       0.423000
     33 H3          38.1330    41.1210    39.4760 hc        36 LIG       0.095700
     34 H4          38.8080    41.0460    36.4660 h1        36 LIG       0.072700
     35 H5          39.8710    39.1350    37.9440 hc        36 LIG       0.055700
     36 H6          38.1860    38.8840    38.3770 hc        36 LIG       0.055700
     37 H7          38.6620    38.6810    40.6860 hc        36 LIG       0.061700
     38 H8          40.2030    39.5250    40.5630 hc        36 LIG       0.061700
     39 H9          39.6970    36.8100    39.2590 h1        36 LIG       0.036700
     40 H10         35.9560    40.6870    37.2740 ha        36 LIG       0.139000
     41 H11         38.1280    44.4050    37.1630 ha        36 LIG       0.139000
     42 H12         39.1660    43.3650    35.2480 ha        36 LIG       0.151500
     43 H13         42.0530    43.7140    38.4530 ha        36 LIG       0.151500
     44 H14         33.8420    41.9310    37.0690 ha        36 LIG       0.147500
     45 H15         36.0160    45.6320    36.9670 ha        36 LIG       0.147500
     46 H16         40.4030    45.0800    33.9800 ha        36 LIG       0.149000
     47 H17         43.2610    45.4190    37.1480 ha        36 LIG       0.149000
     48 H18         41.2940    36.4640    37.5470 ha        36 LIG       0.144000
     49 H19         42.4000    38.8420    40.9850 ha        36 LIG       0.144000
     50 H20         43.5870    36.7480    36.6410 ha        36 LIG       0.149500
     51 H21         44.6770    39.1060    40.0430 ha        36 LIG       0.149500
@<TRIPOS>BOND
     1     1    27 1   
     2     2    30 1   
     3     3    10 2   
     4     4    14 1   
     5     4    31 1   
     6     5    22 1   
     7     5    32 1   
     8     6     8 1   
     9     6    10 1   
    10     6    13 1   
    11     7     8 1   
    12     7     9 1   
    13     7    10 1   
    14     7    33 1   
    15     8    11 1   
    16     8    34 1   
    17     9    12 1   
    18     9    35 1   
    19     9    36 1   
    20    11    15 ar  
    21    11    16 ar  
    22    12    14 1   
    23    12    37 1   
    24    12    38 1   
    25    13    17 ar  
    26    13    18 ar  
    27    14    19 1   
    28    14    39 1   
    29    15    20 ar  
    30    15    40 1   
    31    16    21 ar  
    32    16    41 1   
    33    17    23 ar  
    34    17    42 1   
    35    18    24 ar  
    36    18    43 1   
    37    19    25 ar  
    38    19    26 ar  
    39    20    22 ar  
    40    20    44 1   
    41    21    22 ar  
    42    21    45 1   
    43    23    27 ar  
    44    23    46 1   
    45    24    27 ar  
    46    24    47 1   
    47    25    28 ar  
    48    25    48 1   
    49    26    29 ar  
    50    26    49 1   
    51    28    30 ar  
    52    28    50 1   
    53    29    30 ar  
    54    29    51 1   
@<TRIPOS>SUBSTRUCTURE
     1 LIG         1 TEMP              0 ****  ****    0 ROOT
