@<TRIPOS>MOLECULE
LIG
   56    57     1     0     0
SMALL
bcc


@<TRIPOS>ATOM
      1 O1          36.6890    40.2020    37.9110 os        36 LIG      -0.337900
      2 O2          33.8150    43.8800    37.0590 oh        36 LIG      -0.602800
      3 O3          36.1700    47.4240    33.9760 oh        36 LIG      -0.598800
      4 O4          42.7150    38.7050    39.5010 o         36 LIG      -0.852800
      5 O5          41.9940    36.5610    39.8010 o         36 LIG      -0.852800
      6 C1          37.1140    42.3100    36.8070 c3        36 LIG      -0.087700
      7 C2          36.1730    41.1100    36.9370 c3        36 LIG       0.138100
      8 C3          36.2180    43.5530    36.6820 c3        36 LIG      -0.069500
      9 C4          34.7910    42.9850    36.5430 c3        36 LIG       0.151100
     10 C5          34.8380    41.7040    37.3600 c3        36 LIG      -0.132400
     11 C6          37.9250    42.2440    38.0840 c3        36 LIG      -0.041200
     12 C7          37.8810    40.7730    38.3270 c2        36 LIG      -0.034100
     13 C8          36.6020    44.4100    35.5010 c2        36 LIG      -0.136200
     14 C9          38.9360    40.0400    38.7020 c2        36 LIG      -0.147200
     15 C10         36.8190    45.7350    35.5700 c2        36 LIG      -0.207200
     16 C11         37.2590    46.6310    34.4410 c3        36 LIG       0.171300
     17 C12         39.0020    38.5430    38.6690 c3        36 LIG      -0.039200
     18 C13         38.3890    47.5860    34.8460 c3        36 LIG      -0.106400
     19 C14         39.2910    37.9370    40.0530 c3        36 LIG      -0.042400
     20 C15         39.6420    46.8710    35.3670 c3        36 LIG      -0.080400
     21 C16         40.6560    38.3230    40.6360 c3        36 LIG      -0.198400
     22 C17         40.2660    45.9950    34.2790 c3        36 LIG      -0.078400
     23 C18         41.3910    45.0950    34.7950 c3        36 LIG      -0.079400
     24 C19         41.9060    37.8200    39.8990 c         36 LIG       0.907600
     25 C20         40.9220    44.0540    35.8000 c3        36 LIG      -0.094100
     26 H1          33.4760    43.4690    37.8760 ho        36 LIG       0.414000
     27 H2          36.2110    48.2650    34.4700 ho        36 LIG       0.396000
     28 H3          37.7730    42.1770    35.9400 hc        36 LIG       0.057700
     29 H4          36.0720    40.5880    35.9770 h1        36 LIG       0.054700
     30 H5          36.2730    44.1640    37.5930 hc        36 LIG       0.075700
     31 H6          34.5360    42.7590    35.4980 h1        36 LIG       0.071700
     32 H7          34.8040    41.9130    38.4370 hc        36 LIG       0.063700
     33 H8          33.9990    41.0340    37.1470 hc        36 LIG       0.063700
     34 H9          37.4480    42.7700    38.9210 hc        36 LIG       0.060200
     35 H10         38.9350    42.6430    37.9440 hc        36 LIG       0.060200
     36 H11         36.7330    43.8900    34.5510 ha        36 LIG       0.120000
     37 H12         39.8730    40.5480    38.9180 ha        36 LIG       0.202000
     38 H13         36.7040    46.2310    36.5340 ha        36 LIG       0.127000
     39 H14         37.5850    46.0090    33.5990 h1        36 LIG       0.076700
     40 H15         38.0400    38.1610    38.3070 hc        36 LIG       0.048200
     41 H16         39.7610    38.1900    37.9590 hc        36 LIG       0.048200
     42 H17         38.6590    48.2020    33.9770 hc        36 LIG       0.045700
     43 H18         38.0200    48.2940    35.6010 hc        36 LIG       0.045700
     44 H19         38.4860    38.2030    40.7500 hc        36 LIG       0.016200
     45 H20         39.2600    36.8440    39.9490 hc        36 LIG       0.016200
     46 H21         39.3670    46.2560    36.2320 hc        36 LIG       0.048200
     47 H22         40.3830    47.6030    35.7090 hc        36 LIG       0.048200
     48 H23         40.7070    38.0160    41.6900 hc        36 LIG       0.021200
     49 H24         40.7330    39.4190    40.6250 hc        36 LIG       0.021200
     50 H25         40.6800    46.6400    33.4940 hc        36 LIG       0.037200
     51 H26         39.4890    45.3780    33.8090 hc        36 LIG       0.037200
     52 H27         42.1820    45.7080    35.2450 hc        36 LIG       0.037200
     53 H28         41.8410    44.5780    33.9390 hc        36 LIG       0.037200
     54 H29         41.7520    43.3890    36.0660 hc        36 LIG       0.034033
     55 H30         40.1170    43.4400    35.3840 hc        36 LIG       0.034033
     56 H31         40.5640    44.5200    36.7240 hc        36 LIG       0.034033
@<TRIPOS>BOND
     1     1     7 1   
     2     1    12 1   
     3     2     9 1   
     4     2    26 1   
     5     3    16 1   
     6     3    27 1   
     7     4    24 1   
     8     5    24 1   
     9     6     7 1   
    10     6     8 1   
    11     6    11 1   
    12     6    28 1   
    13     7    10 1   
    14     7    29 1   
    15     8     9 1   
    16     8    13 1   
    17     8    30 1   
    18     9    10 1   
    19     9    31 1   
    20    10    32 1   
    21    10    33 1   
    22    11    12 1   
    23    11    34 1   
    24    11    35 1   
    25    12    14 2   
    26    13    15 2   
    27    13    36 1   
    28    14    17 1   
    29    14    37 1   
    30    15    16 1   
    31    15    38 1   
    32    16    18 1   
    33    16    39 1   
    34    17    19 1   
    35    17    40 1   
    36    17    41 1   
    37    18    20 1   
    38    18    42 1   
    39    18    43 1   
    40    19    21 1   
    41    19    44 1   
    42    19    45 1   
    43    20    22 1   
    44    20    46 1   
    45    20    47 1   
    46    21    24 1   
    47    21    48 1   
    48    21    49 1   
    49    22    23 1   
    50    22    50 1   
    51    22    51 1   
    52    23    25 1   
    53    23    52 1   
    54    23    53 1   
    55    25    54 1   
    56    25    55 1   
    57    25    56 1   
@<TRIPOS>SUBSTRUCTURE
     1 LIG         1 TEMP              0 ****  ****    0 ROOT
