@<TRIPOS>MOLECULE
LIG
   58    61     1     0     0
SMALL
bcc


@<TRIPOS>ATOM
      1 F1          47.1120    29.2310    46.0830 f         50 LIG      -0.138900
      2 F2          44.8130    36.7590    35.7370 f         50 LIG      -0.232133
      3 F3          42.7210    36.4810    36.2830 f         50 LIG      -0.232133
      4 F4          43.9870    34.7590    35.9010 f         50 LIG      -0.232133
      5 F5          42.3240    37.7160    41.4110 f         50 LIG      -0.232133
      6 F6          43.9350    39.0700    40.8660 f         50 LIG      -0.232133
      7 F7          44.2190    37.6230    42.4670 f         50 LIG      -0.232133
      8 O1          44.6540    31.2970    40.2680 os        50 LIG      -0.448600
      9 O2          45.8130    33.0090    41.3790 os        50 LIG      -0.399600
     10 O3          37.0230    30.9010    42.2880 o         50 LIG      -0.530500
     11 N1          42.4610    31.4640    42.1760 n3        50 LIG      -0.744600
     12 N2          40.0040    29.2860    42.6680 na        50 LIG      -0.594200
     13 N3          39.2120    31.4040    42.8610 nc        50 LIG      -0.604100
     14 N4          38.6020    29.2530    42.6090 n         50 LIG      -0.381300
     15 C1          43.7860    32.0790    42.4660 c3        50 LIG       0.224800
     16 C2          44.5220    32.4450    41.1240 c3        50 LIG       0.336900
     17 C3          42.5640    30.3700    41.2000 c3        50 LIG       0.137800
     18 C4          43.3580    30.7770    39.9460 c3        50 LIG       0.136400
     19 C5          44.6540    31.3070    43.4710 ca        50 LIG      -0.131300
     20 C6          41.6470    31.0900    43.3380 c3        50 LIG       0.159500
     21 C7          46.4040    33.6260    40.2310 c3        50 LIG       0.187400
     22 C8          40.2550    30.6190    42.9490 cd        50 LIG       0.561200
     23 C9          45.8910    30.7810    43.0450 ca        50 LIG      -0.087500
     24 C10         44.2670    31.0840    44.8010 ca        50 LIG      -0.087500
     25 C11         45.5520    34.7930    39.7590 ca        50 LIG      -0.128300
     26 C12         47.8140    34.0740    40.6160 c3        50 LIG      -0.092100
     27 C13         46.7190    30.0810    43.9220 ca        50 LIG      -0.170500
     28 C14         45.0970    30.3860    45.6820 ca        50 LIG      -0.170500
     29 C15         45.0500    35.7460    40.6600 ca        50 LIG      -0.041500
     30 C16         45.1970    34.8980    38.4050 ca        50 LIG      -0.041500
     31 C17         46.3160    29.8950    45.2360 ca        50 LIG       0.133900
     32 C18         44.2030    36.7820    40.2300 ca        50 LIG      -0.176300
     33 C19         44.3470    35.9210    37.9500 ca        50 LIG      -0.176300
     34 C20         43.8590    36.8580    38.8720 ca        50 LIG      -0.032000
     35 C21         38.1630    30.5660    42.5650 c         50 LIG       0.745900
     36 C22         43.9760    35.9920    36.4860 c3        50 LIG       0.690200
     37 C23         43.6700    37.7830    41.2280 c3        50 LIG       0.690200
     38 H1          40.4260    28.6260    43.3220 hn        50 LIG       0.413800
     39 H2          38.1500    28.6230    41.9560 hn        50 LIG       0.304500
     40 H3          43.5930    33.0510    42.9300 h1        50 LIG       0.084700
     41 H4          43.8990    33.1660    40.5770 h2        50 LIG       0.057700
     42 H5          41.5610    30.0630    40.8810 h1        50 LIG       0.050200
     43 H6          43.0330    29.4930    41.6590 h1        50 LIG       0.050200
     44 H7          43.5050    29.9000    39.3080 h1        50 LIG       0.061200
     45 H8          42.8090    31.5210    39.3580 h1        50 LIG       0.061200
     46 H9          42.1160    30.2470    43.8570 h1        50 LIG       0.072700
     47 H10         41.5640    31.9120    44.0580 h1        50 LIG       0.072700
     48 H11         46.5100    32.8770    39.4350 h1        50 LIG       0.071700
     49 H12         46.2100    30.8980    42.0110 ha        50 LIG       0.149000
     50 H13         43.3050    31.4340    45.1680 ha        50 LIG       0.149000
     51 H14         47.8090    34.7530    41.4750 hc        50 LIG       0.054033
     52 H15         48.4130    33.2060    40.9140 hc        50 LIG       0.054033
     53 H16         48.3160    34.5730    39.7800 hc        50 LIG       0.054033
     54 H17         47.6670    29.6720    43.5870 ha        50 LIG       0.151000
     55 H18         44.7930    30.2160    46.7100 ha        50 LIG       0.151000
     56 H19         45.2990    35.6660    41.7190 ha        50 LIG       0.165500
     57 H20         45.5670    34.1640    37.6880 ha        50 LIG       0.165500
     58 H21         43.1860    37.6470    38.5280 ha        50 LIG       0.172000
@<TRIPOS>BOND
     1     1    31 1   
     2     2    36 1   
     3     3    36 1   
     4     4    36 1   
     5     5    37 1   
     6     6    37 1   
     7     7    37 1   
     8     8    16 1   
     9     8    18 1   
    10     9    16 1   
    11     9    21 1   
    12    10    35 2   
    13    11    15 1   
    14    11    17 1   
    15    11    20 1   
    16    12    14 1   
    17    12    22 1   
    18    12    38 1   
    19    13    22 2   
    20    13    35 1   
    21    14    35 1   
    22    14    39 1   
    23    15    16 1   
    24    15    19 1   
    25    15    40 1   
    26    16    41 1   
    27    17    18 1   
    28    17    42 1   
    29    17    43 1   
    30    18    44 1   
    31    18    45 1   
    32    19    23 ar  
    33    19    24 ar  
    34    20    22 1   
    35    20    46 1   
    36    20    47 1   
    37    21    25 1   
    38    21    26 1   
    39    21    48 1   
    40    23    27 ar  
    41    23    49 1   
    42    24    28 ar  
    43    24    50 1   
    44    25    29 ar  
    45    25    30 ar  
    46    26    51 1   
    47    26    52 1   
    48    26    53 1   
    49    27    31 ar  
    50    27    54 1   
    51    28    31 ar  
    52    28    55 1   
    53    29    32 ar  
    54    29    56 1   
    55    30    33 ar  
    56    30    57 1   
    57    32    34 ar  
    58    32    37 1   
    59    33    34 ar  
    60    33    36 1   
    61    34    58 1   
@<TRIPOS>SUBSTRUCTURE
     1 LIG         1 TEMP              0 ****  ****    0 ROOT
