@<TRIPOS>MOLECULE
LIG
   60    63     1     0     0
SMALL
bcc


@<TRIPOS>ATOM
      1 S1          35.5930    28.9350    43.1420 s6        50 LIG       1.469900
      2 O1          44.7130    31.0760    42.3760 o         50 LIG      -0.610100
      3 O2          35.8170    29.8830    44.2150 o         50 LIG      -0.653800
      4 O3          34.5880    29.1620    42.1300 o         50 LIG      -0.653800
      5 N1          44.8370    35.9950    41.4480 nh        50 LIG      -0.712300
      6 N2          44.0290    33.2560    42.1100 n         50 LIG      -0.444800
      7 N3          41.3380    32.2800    42.5810 na        50 LIG      -0.156400
      8 N4          44.2070    38.0760    39.6860 nh        50 LIG      -0.692600
      9 N5          46.5160    35.1900    39.9420 nb        50 LIG      -0.696000
     10 N6          37.1070    28.6870    42.4440 nh        50 LIG      -0.787500
     11 C1          45.5790    35.1830    42.4460 c3        50 LIG       0.156800
     12 C2          43.4400    35.5460    41.2650 c3        50 LIG       0.156800
     13 C3          45.4320    33.6710    42.2130 c3        50 LIG       0.049000
     14 C4          43.2800    34.0220    41.1000 c3        50 LIG       0.049000
     15 C5          45.5660    36.1050    40.2320 ca        50 LIG       0.580200
     16 C6          43.7920    31.8810    42.2540 c         50 LIG       0.682300
     17 C7          42.4080    31.4570    42.3110 cc        50 LIG      -0.114300
     18 C8          45.2390    37.1730    39.3450 ca        50 LIG       0.007300
     19 C9          41.9000    30.1740    42.2140 cd        50 LIG      -0.143200
     20 C10         40.4880    30.2360    42.3640 ca        50 LIG      -0.094800
     21 C11         40.1600    31.5710    42.5850 ca        50 LIG      -0.045200
     22 C12         44.1510    38.6300    41.0400 c3        50 LIG       0.174500
     23 C13         46.0200    37.3210    38.1970 ca        50 LIG      -0.140000
     24 C14         39.4550    29.2790    42.3360 ca        50 LIG      -0.107000
     25 C15         38.8440    32.0010    42.7750 ca        50 LIG      -0.118000
     26 C16         47.2190    35.3570    38.8020 ca        50 LIG       0.393200
     27 C17         38.1300    29.6820    42.5490 ca        50 LIG       0.114600
     28 C18         47.0200    36.3980    37.9150 ca        50 LIG      -0.238300
     29 C19         37.8330    31.0320    42.7400 ca        50 LIG      -0.140000
     30 C20         44.5190    40.1130    41.0390 c3        50 LIG      -0.110600
     31 C21         42.7260    38.4450    41.5620 c3        50 LIG      -0.110600
     32 C22         35.3050    27.3500    43.8960 c3        50 LIG      -0.369300
     33 H1          41.4160    33.2690    42.7660 hn        50 LIG       0.315700
     34 H2          44.2200    38.8100    38.9690 hn        50 LIG       0.367800
     35 H3          37.4070    27.7270    42.6250 hn        50 LIG       0.457800
     36 H4          46.6420    35.4450    42.4920 h1        50 LIG       0.068450
     37 H5          45.1640    35.4260    43.4320 h1        50 LIG       0.068450
     38 H6          42.9580    36.0770    40.4340 h1        50 LIG       0.068450
     39 H7          42.8920    35.8460    42.1680 h1        50 LIG       0.068450
     40 H8          45.9420    33.3650    41.2910 h1        50 LIG       0.072700
     41 H9          45.9070    33.1350    43.0430 h1        50 LIG       0.072700
     42 H10         43.6320    33.6830    40.1200 h1        50 LIG       0.072700
     43 H11         42.2150    33.7790    41.1310 h1        50 LIG       0.072700
     44 H12         42.4950    29.2850    42.0440 ha        50 LIG       0.165000
     45 H13         44.8170    38.0840    41.7190 h1        50 LIG       0.085700
     46 H14         45.8670    38.1510    37.5170 ha        50 LIG       0.137000
     47 H15         39.7030    28.2380    42.1600 ha        50 LIG       0.139000
     48 H16         38.6030    33.0460    42.9440 ha        50 LIG       0.145000
     49 H17         47.9830    34.6070    38.6180 h4        50 LIG       0.023100
     50 H18         47.6310    36.4920    37.0240 ha        50 LIG       0.145000
     51 H19         36.8080    31.3610    42.8770 ha        50 LIG       0.172000
     52 H20         44.4090    40.5410    42.0400 hc        50 LIG       0.039533
     53 H21         45.5580    40.2660    40.7280 hc        50 LIG       0.039533
     54 H22         43.8820    40.6820    40.3520 hc        50 LIG       0.039533
     55 H23         41.9990    38.9740    40.9360 hc        50 LIG       0.039533
     56 H24         42.4500    37.3850    41.5660 hc        50 LIG       0.039533
     57 H25         42.6330    38.8220    42.5850 hc        50 LIG       0.039533
     58 H26         36.1270    27.1260    44.5780 h1        50 LIG       0.117700
     59 H27         35.2220    26.5880    43.1180 h1        50 LIG       0.117700
     60 H28         34.3680    27.4110    44.4540 h1        50 LIG       0.117700
@<TRIPOS>BOND
     1     1     3 2   
     2     1     4 2   
     3     1    10 1   
     4     1    32 1   
     5     2    16 2   
     6     5    11 1   
     7     5    12 1   
     8     5    15 1   
     9     6    13 1   
    10     6    14 1   
    11     6    16 1   
    12     7    17 1   
    13     7    21 1   
    14     7    33 1   
    15     8    18 1   
    16     8    22 1   
    17     8    34 1   
    18     9    15 ar  
    19     9    26 ar  
    20    10    27 1   
    21    10    35 1   
    22    11    13 1   
    23    11    36 1   
    24    11    37 1   
    25    12    14 1   
    26    12    38 1   
    27    12    39 1   
    28    13    40 1   
    29    13    41 1   
    30    14    42 1   
    31    14    43 1   
    32    15    18 ar  
    33    16    17 1   
    34    17    19 2   
    35    18    23 ar  
    36    19    20 1   
    37    19    44 1   
    38    20    21 ar  
    39    20    24 ar  
    40    21    25 ar  
    41    22    30 1   
    42    22    31 1   
    43    22    45 1   
    44    23    28 ar  
    45    23    46 1   
    46    24    27 ar  
    47    24    47 1   
    48    25    29 ar  
    49    25    48 1   
    50    26    28 ar  
    51    26    49 1   
    52    27    29 ar  
    53    28    50 1   
    54    29    51 1   
    55    30    52 1   
    56    30    53 1   
    57    30    54 1   
    58    31    55 1   
    59    31    56 1   
    60    31    57 1   
    61    32    58 1   
    62    32    59 1   
    63    32    60 1   
@<TRIPOS>SUBSTRUCTURE
     1 LIG         1 TEMP              0 ****  ****    0 ROOT
