@<TRIPOS>MOLECULE
LIG
  119   126     1     0     0
SMALL
bcc


@<TRIPOS>ATOM
      1 O1          39.9620    29.6520    43.6620 oh        50 LIG      -0.604800
      2 O2          39.3440    30.6870    38.9230 oh        50 LIG      -0.600800
      3 O3          47.4500    33.1760    41.5230 os        50 LIG      -0.452600
      4 O4          35.9530    27.8180    43.0010 os        50 LIG      -0.421900
      5 O5          47.0470    35.3140    40.6060 os        50 LIG      -0.430600
      6 O6          33.9500    28.0950    41.9060 o         50 LIG      -0.565500
      7 O7          51.0760    34.5060    39.7790 oh        50 LIG      -0.595800
      8 O8          49.3100    36.4590    38.9500 os        50 LIG      -0.419600
      9 O9          47.6390    37.1570    37.4600 os        50 LIG      -0.445600
     10 O10         49.1930    39.0060    35.2060 os        50 LIG      -0.433600
     11 O11         49.9080    36.3960    34.1860 oh        50 LIG      -0.587800
     12 O12         48.1710    40.2630    33.5830 os        50 LIG      -0.443600
     13 O13         51.1330    42.9770    34.2630 oh        50 LIG      -0.584800
     14 O14         48.7640    43.7870    33.4370 oh        50 LIG      -0.607800
     15 C1          40.3120    30.5510    42.5970 c3        50 LIG       0.157800
     16 C2          41.8600    30.5310    42.4160 c3        50 LIG      -0.073700
     17 C3          42.3590    31.2920    41.1680 c3        50 LIG      -0.041700
     18 C4          39.5100    30.1860    41.3240 c3        50 LIG      -0.050000
     19 C5          43.9220    31.1710    40.9410 c3        50 LIG      -0.036000
     20 C6          44.7060    30.7620    42.2360 c3        50 LIG      -0.052700
     21 C7          40.0260    31.0430    40.1280 c3        50 LIG       0.146100
     22 C8          41.5340    30.9320    39.9180 c3        50 LIG      -0.113400
     23 C9          38.0430    30.6630    41.6660 c3        50 LIG      -0.017500
     24 C10         39.7190    31.9140    42.9920 c3        50 LIG      -0.074400
     25 C11         42.5480    31.1240    43.6480 c3        50 LIG      -0.073400
     26 C12         44.0690    31.0820    43.5990 c3        50 LIG      -0.075400
     27 C13         38.2150    31.7740    42.7350 c3        50 LIG      -0.076400
     28 C14         44.4590    32.5230    40.3560 c3        50 LIG      -0.069400
     29 C15         39.6050    28.6840    40.9830 c3        50 LIG      -0.091100
     30 C16         46.1450    31.3080    42.2020 c3        50 LIG      -0.074400
     31 C17         44.2610    30.0940    39.8670 c3        50 LIG      -0.089100
     32 C18         45.0040    33.4570    41.4380 c3        50 LIG      -0.111400
     33 C19         46.2160    32.8440    42.1600 c3        50 LIG       0.156100
     34 C20         37.0110    29.6160    42.0150 c2        50 LIG      -0.066400
     35 C21         37.2130    28.4920    42.9650 c3        50 LIG       0.134600
     36 C22         35.7500    29.6170    41.5850 ce        50 LIG      -0.248200
     37 C23         35.0900    28.4430    42.1510 c         50 LIG       0.704800
     38 C24         47.7880    34.5600    41.5600 c3        50 LIG       0.335900
     39 C25         49.2860    34.6950    41.3530 c3        50 LIG      -0.130400
     40 C26         49.6680    34.2930    39.9360 c3        50 LIG       0.142100
     41 C27         47.3460    35.0590    39.2300 c3        50 LIG       0.140100
     42 C28         48.8490    35.0880    38.9040 c3        50 LIG       0.089100
     43 C29         46.6620    33.7870    38.7290 c3        50 LIG      -0.120100
     44 C30         49.0380    37.1810    37.7490 c3        50 LIG       0.344900
     45 C31         49.7990    36.5060    36.6090 c3        50 LIG      -0.173400
     46 C32         49.0210    36.5860    35.2950 c3        50 LIG       0.160100
     47 C33         47.3150    38.0700    36.3990 c3        50 LIG       0.128100
     48 C34         48.2490    37.9110    35.1730 c3        50 LIG       0.074100
     49 C35         45.8590    37.8140    36.0310 c3        50 LIG      -0.095100
     50 C36         48.5990    40.2790    34.9460 c3        50 LIG       0.338900
     51 C37         49.6190    41.3810    35.2480 c3        50 LIG      -0.138400
     52 C38         50.2130    41.9230    33.9580 c3        50 LIG       0.158100
     53 C39         47.8470    41.5660    33.0990 c3        50 LIG       0.124100
     54 C40         49.1060    42.4500    33.0270 c3        50 LIG       0.075100
     55 C41         47.2030    41.4130    31.7250 c3        50 LIG      -0.096100
     56 H1          40.4640    28.8260    43.5500 ho        50 LIG       0.404000
     57 H2          39.1530    31.4880    38.4100 ho        50 LIG       0.403000
     58 H3          51.5120    34.1410    40.5790 ho        50 LIG       0.409000
     59 H4          49.7030    35.5230    33.8010 ho        50 LIG       0.416000
     60 H5          51.9230    42.7980    33.7060 ho        50 LIG       0.418000
     61 H6          47.8020    43.8880    33.2990 ho        50 LIG       0.412000
     62 H7          42.1750    29.4820    42.3270 hc        50 LIG       0.046700
     63 H8          42.1590    32.3550    41.3630 hc        50 LIG       0.054700
     64 H9          44.7880    29.6650    42.2270 hc        50 LIG       0.050700
     65 H10         39.7900    32.1000    40.2910 h1        50 LIG       0.035700
     66 H11         41.7520    29.9160    39.5800 hc        50 LIG       0.053700
     67 H12         41.8160    31.5790    39.0790 hc        50 LIG       0.053700
     68 H13         37.6320    31.1680    40.7820 hc        50 LIG       0.080700
     69 H14         39.8930    32.1630    44.0490 hc        50 LIG       0.060700
     70 H15         40.1190    32.7390    42.3890 hc        50 LIG       0.060700
     71 H16         42.2640    32.1820    43.7520 hc        50 LIG       0.048200
     72 H17         42.2090    30.6280    44.5650 hc        50 LIG       0.048200
     73 H18         44.4100    30.3050    44.3080 hc        50 LIG       0.043700
     74 H19         44.4550    32.0230    44.0300 hc        50 LIG       0.043700
     75 H20         37.7190    31.5470    43.6870 hc        50 LIG       0.049700
     76 H21         37.8000    32.7250    42.3840 hc        50 LIG       0.049700
     77 H22         45.2640    32.3440    39.6320 hc        50 LIG       0.044700
     78 H23         43.6740    33.0390    39.7910 hc        50 LIG       0.044700
     79 H24         39.3020    28.0350    41.8130 hc        50 LIG       0.048367
     80 H25         40.6250    28.4010    40.7260 hc        50 LIG       0.048367
     81 H26         38.9830    28.4240    40.1270 hc        50 LIG       0.048367
     82 H27         46.6740    30.8900    41.3370 hc        50 LIG       0.055200
     83 H28         46.7100    30.9440    43.0740 hc        50 LIG       0.055200
     84 H29         45.3450    29.9820    39.7320 hc        50 LIG       0.035700
     85 H30         43.8680    30.3590    38.8780 hc        50 LIG       0.035700
     86 H31         43.8620    29.1070    40.1440 hc        50 LIG       0.035700
     87 H32         44.2030    33.6450    42.1650 hc        50 LIG       0.059200
     88 H33         45.2510    34.4260    40.9860 hc        50 LIG       0.059200
     89 H34         46.2430    33.2220    43.1880 h1        50 LIG       0.032700
     90 H35         37.4310    28.8460    43.9790 h1        50 LIG       0.091700
     91 H36         37.9820    27.7870    42.6390 h1        50 LIG       0.091700
     92 H37         35.2670    30.2790    40.8880 ha        50 LIG       0.179000
     93 H38         47.5450    34.9830    42.5440 h2        50 LIG       0.072700
     94 H39         49.6230    35.7250    41.5450 hc        50 LIG       0.069700
     95 H40         49.8290    34.0530    42.0610 hc        50 LIG       0.069700
     96 H41         49.4950    33.2220    39.7960 h1        50 LIG       0.094700
     97 H42         46.8730    35.8920    38.6920 h1        50 LIG       0.095700
     98 H43         49.0190    34.6670    37.9060 h1        50 LIG       0.069700
     99 H44         47.1280    32.8790    39.1220 hc        50 LIG       0.046033
    100 H45         46.7130    33.7260    37.6380 hc        50 LIG       0.046033
    101 H46         45.6100    33.7670    39.0260 hc        50 LIG       0.046033
    102 H47         49.3780    38.2140    37.8900 h2        50 LIG       0.076700
    103 H48         50.7930    36.9660    36.5170 hc        50 LIG       0.077200
    104 H49         50.0030    35.4530    36.8340 hc        50 LIG       0.077200
    105 H50         48.2970    35.7590    35.2520 h1        50 LIG       0.084700
    106 H51         47.3860    39.0870    36.8050 h1        50 LIG       0.050700
    107 H52         47.6790    37.9770    34.2390 h1        50 LIG       0.084700
    108 H53         45.2100    38.0230    36.8900 hc        50 LIG       0.049367
    109 H54         45.6940    36.7660    35.7600 hc        50 LIG       0.049367
    110 H55         45.5380    38.4560    35.2050 hc        50 LIG       0.049367
    111 H56         47.7120    40.4340    35.5680 h2        50 LIG       0.049700
    112 H57         49.1200    42.2020    35.7790 hc        50 LIG       0.075200
    113 H58         50.4110    41.0360    35.9250 hc        50 LIG       0.075200
    114 H59         50.7750    41.1300    33.4560 h1        50 LIG       0.091700
    115 H60         47.0990    42.0120    33.7660 h1        50 LIG       0.049700
    116 H61         49.5100    42.5300    32.0120 h1        50 LIG       0.059700
    117 H62         46.3390    40.7450    31.7840 hc        50 LIG       0.050033
    118 H63         47.9020    40.9570    31.0140 hc        50 LIG       0.050033
    119 H64         46.8730    42.3760    31.3260 hc        50 LIG       0.050033
@<TRIPOS>BOND
     1     1    15 1   
     2     1    56 1   
     3     2    21 1   
     4     2    57 1   
     5     3    33 1   
     6     3    38 1   
     7     4    35 1   
     8     4    37 1   
     9     5    38 1   
    10     5    41 1   
    11     6    37 2   
    12     7    40 1   
    13     7    58 1   
    14     8    42 1   
    15     8    44 1   
    16     9    44 1   
    17     9    47 1   
    18    10    48 1   
    19    10    50 1   
    20    11    46 1   
    21    11    59 1   
    22    12    50 1   
    23    12    53 1   
    24    13    52 1   
    25    13    60 1   
    26    14    54 1   
    27    14    61 1   
    28    15    16 1   
    29    15    18 1   
    30    15    24 1   
    31    16    17 1   
    32    16    25 1   
    33    16    62 1   
    34    17    19 1   
    35    17    22 1   
    36    17    63 1   
    37    18    21 1   
    38    18    23 1   
    39    18    29 1   
    40    19    20 1   
    41    19    28 1   
    42    19    31 1   
    43    20    26 1   
    44    20    30 1   
    45    20    64 1   
    46    21    22 1   
    47    21    65 1   
    48    22    66 1   
    49    22    67 1   
    50    23    27 1   
    51    23    34 1   
    52    23    68 1   
    53    24    27 1   
    54    24    69 1   
    55    24    70 1   
    56    25    26 1   
    57    25    71 1   
    58    25    72 1   
    59    26    73 1   
    60    26    74 1   
    61    27    75 1   
    62    27    76 1   
    63    28    32 1   
    64    28    77 1   
    65    28    78 1   
    66    29    79 1   
    67    29    80 1   
    68    29    81 1   
    69    30    33 1   
    70    30    82 1   
    71    30    83 1   
    72    31    84 1   
    73    31    85 1   
    74    31    86 1   
    75    32    33 1   
    76    32    87 1   
    77    32    88 1   
    78    33    89 1   
    79    34    35 1   
    80    34    36 2   
    81    35    90 1   
    82    35    91 1   
    83    36    37 1   
    84    36    92 1   
    85    38    39 1   
    86    38    93 1   
    87    39    40 1   
    88    39    94 1   
    89    39    95 1   
    90    40    42 1   
    91    40    96 1   
    92    41    42 1   
    93    41    43 1   
    94    41    97 1   
    95    42    98 1   
    96    43    99 1   
    97    43   100 1   
    98    43   101 1   
    99    44    45 1   
   100    44   102 1   
   101    45    46 1   
   102    45   103 1   
   103    45   104 1   
   104    46    48 1   
   105    46   105 1   
   106    47    48 1   
   107    47    49 1   
   108    47   106 1   
   109    48   107 1   
   110    49   108 1   
   111    49   109 1   
   112    49   110 1   
   113    50    51 1   
   114    50   111 1   
   115    51    52 1   
   116    51   112 1   
   117    51   113 1   
   118    52    54 1   
   119    52   114 1   
   120    53    54 1   
   121    53    55 1   
   122    53   115 1   
   123    54   116 1   
   124    55   117 1   
   125    55   118 1   
   126    55   119 1   
@<TRIPOS>SUBSTRUCTURE
     1 LIG         1 TEMP              0 ****  ****    0 ROOT
